# River file for MODFLOW-2000, generated by PMWIN
#
PARAMETER 1  0 
      2000        50
RIV_0_2 RIV  1 0 
 0  0 
 0  1 
RIV_0_2
